/*--------------------------------*- C++ -*----------------------------------*\
|   Thermal diffusivity properties                                         |
\*---------------------------------------------------------------------------*/

FoamFile
{
    version     2.0;
    format      ascii;
    class       dictionary;
    location    "constant";
    object      transportProperties;
}

transportModel  constant;

// thermal diffusivity [m^2/s]
DT              1.25e-5;   // example for stainless steel

