/*--------------------------------*- C++ -*----------------------------------*\
|   BlockMeshDict for rectangular plate                                     |
\*---------------------------------------------------------------------------*/

FoamFile
{
    version     2.0;
    format      ascii;
    class       dictionary;
    location    "system";
    object      blockMeshDict;
}

convertToMeters 1;

vertices
(
    ( -0.025 -0.025 0.0 )
    (  0.025 -0.025 0.0 )
    (  0.025  0.025 0.0 )
    ( -0.025  0.025 0.0 )
    ( -0.025 -0.025 0.01 )
    (  0.025 -0.025 0.01 )
    (  0.025  0.025 0.01 )
    ( -0.025  0.025 0.01 )
);

blocks
(
    hex (0 1 2 3 4 5 6 7) (50 50 10) simpleGrading (1 1 1)
);

edges
(
);

boundary
(
    hotPlateBottom
    {
        type patch;
        faces
        (
            (0 1 2 3)
        );
    }
    plateTop
    {
        type patch;
        faces
        (
            (4 5 6 7)
        );
    }
    plateSides
    {
        type patch;
        faces
        (
            (0 4 7 3)
            (1 5 6 2)
            (0 1 5 4)
            (3 2 6 7)
        );
    }
);

mergePatchPairs
(
);

