/*--------------------------------*- C++ -*----------------------------------*\
|   Control parameters                                                      |
\*---------------------------------------------------------------------------*/

FoamFile
{
    version     2.0;
    format      ascii;
    class       dictionary;
    location    "system";
    object      controlDict;
}

application     laplacianFoam;

startFrom       startTime;
startTime       0;

stopAt          endTime;
endTime         5;

deltaT          0.1;

writeControl    timeStep;
writeInterval   1;

purgeWrite      0;

