/*--------------------------------*- C++ -*----------------------------------*\
|   Linear solver settings                                                  |
\*---------------------------------------------------------------------------*/

FoamFile
{
    version     2.0;
    format      ascii;
    class       dictionary;
    location    "system";
    object      fvSolution;
}

solvers
{
    T
    {
        solver          GAMG;
        tolerance       1e-08;
        relTol          0;
        smoother        GaussSeidel;
    }
}

SIMPLE
{
    nNonOrthogonalCorrectors 0;
}

