/*--------------------------------*- C++ -*----------------------------------*\
|   SnappyHexMeshDict to embed hemisphere                                   |
\*---------------------------------------------------------------------------*/

FoamFile
{
    version     2.0;
    format      ascii;
    class       dictionary;
    location    "system";
    object      snappyHexMeshDict;
}

castellatedMesh true;
snap            true;
addLayers       false;

geometry
{
    hemisphere.stl
    {
        type triSurfaceMesh;
        name hemisphereSurface;
    }
}

castellatedMeshControls
{
    maxLocalCells 1000000;
    maxGlobalCells 2000000;
    minRefinementCells 10;
    maxLoadUnbalance 0.10;
    nCellsBetweenLevels 2;

    features ();

    refinementSurfaces
    {
        hemisphereSurface
        {
            level (2 3);
        }
    }

    resolveFeatureAngle 30;
}

snapControls
{
    nSmoothPatch 3;
    tolerance 2.0;
    nSolveIter 30;
    nRelaxIter 5;
}

addLayersControls
{
}

meshQualityControls
{
}


